Version 4
SHEET 1 1972 1284
WIRE -752 -400 -976 -400
WIRE -16 -400 -752 -400
WIRE 320 -400 -16 -400
WIRE 544 -400 320 -400
WIRE 752 -400 624 -400
WIRE 880 -400 800 -400
WIRE 928 -400 880 -400
WIRE 1072 -400 992 -400
WIRE 1152 -400 1072 -400
WIRE 1280 -400 1152 -400
WIRE 1696 -400 1280 -400
WIRE 1856 -400 1696 -400
WIRE 320 -336 320 -400
WIRE 320 -336 240 -336
WIRE 416 -336 320 -336
WIRE 752 -336 752 -400
WIRE 800 -336 800 -400
WIRE 1856 -336 1856 -400
WIRE 1152 -320 1152 -400
WIRE -976 -304 -976 -400
WIRE 240 -304 240 -336
WIRE 416 -304 416 -336
WIRE -752 -272 -752 -400
WIRE 1856 -208 1856 -256
WIRE 240 -176 240 -240
WIRE 320 -176 240 -176
WIRE 416 -176 416 -224
WIRE 416 -176 320 -176
WIRE 800 -176 800 -256
WIRE 1152 -176 1152 -256
WIRE -752 -128 -752 -208
WIRE -528 -128 -528 -256
WIRE 320 -128 320 -176
WIRE 1280 -128 1280 -400
WIRE 1280 -128 1120 -128
WIRE -16 -96 -16 -400
WIRE 1120 -64 1120 -128
WIRE 320 -48 320 -64
WIRE 752 -48 752 -256
WIRE 752 -48 320 -48
WIRE 1280 16 1280 -128
WIRE 1120 64 1120 16
WIRE 1216 64 1120 64
WIRE 752 96 752 -48
WIRE -528 112 -528 -64
WIRE -448 112 -528 112
WIRE -272 112 -368 112
WIRE -112 112 -272 112
WIRE -16 112 -16 -16
WIRE -16 112 -112 112
WIRE -16 144 -16 112
WIRE 1120 144 1120 64
WIRE 704 176 656 176
WIRE -560 208 -832 208
WIRE -176 208 -560 208
WIRE -432 224 -496 224
WIRE -272 224 -352 224
WIRE 1120 224 1120 208
WIRE 336 240 144 240
WIRE 656 240 656 176
WIRE 656 240 416 240
WIRE -560 272 -560 208
WIRE -496 272 -496 224
WIRE -496 272 -560 272
WIRE -272 272 -272 224
WIRE -176 272 -272 272
WIRE -496 304 -496 272
WIRE -432 304 -496 304
WIRE -272 304 -272 272
WIRE -272 304 -368 304
WIRE -512 336 -640 336
WIRE -304 336 -512 336
WIRE -176 336 -304 336
WIRE 528 352 496 352
WIRE 752 352 752 192
WIRE 752 352 608 352
WIRE 208 368 144 368
WIRE 352 368 208 368
WIRE 496 368 496 352
WIRE 496 368 352 368
WIRE 752 368 752 352
WIRE 1072 368 896 368
WIRE 1280 368 1280 112
WIRE 1280 368 1072 368
WIRE 1696 384 1696 -400
WIRE -368 400 -448 400
WIRE -224 400 -368 400
WIRE -176 400 -224 400
WIRE 352 416 352 368
WIRE 1280 416 1280 368
WIRE -224 480 -224 400
WIRE 752 480 752 448
WIRE -368 496 -368 400
WIRE 352 512 352 480
WIRE -512 544 -512 336
WIRE -16 560 -16 464
WIRE 896 560 896 368
WIRE 1072 560 1072 368
WIRE 1280 560 1280 496
WIRE 1312 560 1280 560
WIRE 1408 560 1376 560
WIRE -448 592 -448 400
WIRE 1280 624 1280 560
WIRE -368 640 -368 576
WIRE -304 640 -304 336
WIRE -304 640 -368 640
WIRE -224 640 -224 544
WIRE -512 736 -512 640
WIRE -496 736 -512 736
WIRE 208 736 208 368
WIRE 208 736 -416 736
WIRE 1408 752 1344 752
WIRE 1536 752 1472 752
WIRE -304 848 -304 640
WIRE 656 848 -304 848
WIRE 896 848 896 640
WIRE 896 848 848 848
WIRE 1072 848 1072 640
WIRE 1280 848 1280 688
WIRE 1280 848 1072 848
WIRE 1344 848 1344 752
WIRE 1344 848 1280 848
WIRE 1408 848 1344 848
WIRE 1536 848 1536 752
WIRE 1536 848 1488 848
WIRE 1552 848 1536 848
WIRE 1696 848 1696 464
WIRE 1696 848 1616 848
WIRE 656 944 640 944
WIRE 1072 944 1072 848
WIRE 1072 944 848 944
WIRE -832 960 -832 208
WIRE -64 960 -832 960
WIRE 432 960 16 960
WIRE 640 960 640 944
WIRE 640 960 432 960
WIRE 1696 960 1696 848
WIRE 1696 960 1600 960
WIRE 1696 1008 1696 960
WIRE 1280 1040 1280 848
WIRE 1600 1072 1600 960
WIRE 1600 1072 1312 1072
WIRE 432 1088 432 960
WIRE 432 1248 432 1168
WIRE 1280 1264 1280 1104
WIRE 1696 1264 1696 1088
WIRE 1696 1264 1280 1264
FLAG -976 -224 0
FLAG 752 480 0
FLAG -528 -336 0
FLAG -112 48 0
FLAG -272 48 0
FLAG -640 400 0
FLAG 432 1248 0
FLAG 352 512 0
FLAG 1408 560 0
FLAG 1120 224 0
FLAG 1856 -208 0
FLAG 800 -176 0
FLAG 1152 -176 0
FLAG -224 640 0
FLAG -16 560 0
FLAG -752 -128 0
FLAG -976 -400 Vinput
FLAG 1856 -400 Voutput
FLAG 880 -400 Vdiode1
FLAG 1072 -400 Vdiode2
SYMBOL ind2 768 -352 M0
SYMATTR InstName Lprimary
SYMATTR Value 46µ
SYMATTR Type ind
SYMBOL ind2 784 -240 M180
WINDOW 0 36 80 Left 2
WINDOW 3 36 40 Left 2
SYMATTR InstName Lsecondary
SYMATTR Value 25.875µ
SYMATTR Type ind
SYMBOL voltage -976 -320 R0
SYMATTR InstName Vinput
SYMATTR Value 24
SYMBOL nmos 704 96 R0
SYMATTR InstName M1
SYMATTR Value Si4848DY
SYMBOL res 736 352 R0
SYMATTR InstName Rsense
SYMATTR Value 0.1
SYMBOL PowerProducts/LT1242 -16 304 R0
SYMATTR InstName U1
SYMBOL res -32 -112 R0
SYMATTR InstName Rstartup
SYMATTR Value 3k
SYMBOL Optos/PC817A 752 896 M0
SYMATTR InstName U3
SYMBOL res 1056 544 R0
SYMATTR InstName R11
SYMATTR Value 7.15k
SYMBOL res 880 544 R0
SYMATTR InstName R10
SYMATTR Value 3.4k
SYMBOL res 432 224 R90
WINDOW 0 0 56 VBottom 2
WINDOW 3 32 56 VTop 2
SYMATTR InstName Rmosfet
SYMATTR Value 10
SYMBOL ind2 -544 -352 R0
SYMATTR InstName Lthird
SYMATTR Value 25.875µ
SYMATTR Type ind
SYMBOL res -352 96 R90
WINDOW 0 0 56 VBottom 2
WINDOW 3 32 56 VTop 2
SYMATTR InstName R3
SYMATTR Value 10
SYMBOL cap -288 48 R0
SYMATTR InstName Cvcc2
SYMATTR Value 100n
SYMBOL cap -96 112 R180
WINDOW 0 24 56 Left 2
WINDOW 3 24 8 Left 2
SYMATTR InstName Cvcc1
SYMATTR Value 22µ
SYMBOL cap -656 336 R0
SYMATTR InstName Cvref
SYMATTR Value 1µ
SYMBOL npn 1216 16 R0
SYMATTR InstName Q2
SYMATTR Value 2N2222
SYMBOL res -400 720 R90
WINDOW 0 0 56 VBottom 2
WINDOW 3 32 56 VTop 2
SYMATTR InstName R19
SYMATTR Value 3.4k
SYMBOL res -384 480 R0
SYMATTR InstName Rct
SYMATTR Value 8k
SYMBOL res 32 944 R90
WINDOW 0 0 56 VBottom 2
WINDOW 3 32 56 VTop 2
SYMATTR InstName R22
SYMATTR Value 5k
SYMBOL res 416 1072 R0
SYMATTR InstName Rf
SYMATTR Value 500
SYMBOL cap 336 416 R0
SYMATTR InstName Csense
SYMATTR Value 470p
SYMBOL res 1264 400 R0
SYMATTR InstName R13
SYMATTR Value 15.4k
SYMBOL cap 1312 576 R270
WINDOW 0 32 32 VTop 2
WINDOW 3 0 32 VBottom 2
SYMATTR InstName C7
SYMATTR Value 27µ
SYMATTR SpiceLine Rser=27u
SYMBOL res 1504 832 R90
WINDOW 0 0 56 VBottom 2
WINDOW 3 32 56 VTop 2
SYMATTR InstName R14
SYMATTR Value 205k
SYMBOL cap 1472 736 R90
WINDOW 0 0 32 VBottom 2
WINDOW 3 32 32 VTop 2
SYMATTR InstName C5
SYMATTR Value 22p
SYMBOL cap 1616 832 R90
WINDOW 0 0 32 VBottom 2
WINDOW 3 32 32 VTop 2
SYMATTR InstName C6
SYMATTR Value 470p
SYMATTR SpiceLine Rser=82p
SYMBOL res 1680 992 R0
SYMATTR InstName Rdiv2
SYMATTR Value 2.74k
SYMBOL res 1680 368 R0
SYMATTR InstName Rdiv1
SYMATTR Value 13.7k
SYMBOL npn -448 544 M0
SYMATTR InstName Q1
SYMATTR Value 2N2222
SYMBOL res 1104 -80 R0
SYMATTR InstName R17
SYMATTR Value 1.1k
SYMBOL schottky 1136 208 R180
WINDOW 0 24 64 Left 2
WINDOW 3 24 0 Left 2
SYMATTR InstName D1
SYMATTR Value RB205T-40
SYMATTR Description Zener Diode
SYMATTR Type zener
SYMBOL diode 1296 688 R180
WINDOW 0 24 64 Left 2
WINDOW 3 24 0 Left 2
SYMATTR InstName D3
SYMATTR Value RF05VAM2S
SYMBOL cap -768 -272 R0
SYMATTR InstName C11
SYMATTR Value 2.2µ
SYMATTR SpiceLine Rser=5m
SYMBOL cap 1136 -320 R0
SYMATTR InstName Coutput
SYMATTR Value 50µ
SYMBOL References/LT1009 1280 1072 R0
SYMATTR InstName U2
SYMBOL diode 928 -384 R270
WINDOW 0 32 32 VTop 2
WINDOW 3 0 32 VBottom 2
SYMATTR InstName D4
SYMBOL diode -544 -128 R0
SYMATTR InstName D6
SYMBOL res 624 336 R90
WINDOW 0 0 56 VBottom 2
WINDOW 3 32 56 VTop 2
SYMATTR InstName Rbleeder
SYMATTR Value 1k
SYMBOL res 400 -320 R0
SYMATTR InstName Rsnubber
SYMATTR Value 1.2k
SYMBOL cap 224 -304 R0
SYMATTR InstName Csnubber
SYMATTR Value 330n
SYMBOL ind 528 -384 R270
WINDOW 0 32 56 VTop 2
WINDOW 3 5 56 VBottom 2
SYMATTR InstName Lleakage
SYMATTR Value 1.72µ
SYMBOL res 1840 -352 R0
SYMATTR InstName Routput
SYMATTR Value 5
SYMBOL res -336 208 R90
WINDOW 0 0 56 VBottom 2
WINDOW 3 32 56 VTop 2
SYMATTR InstName R5
SYMATTR Value 10k
SYMBOL cap -368 288 R90
WINDOW 0 0 32 VBottom 2
WINDOW 3 32 32 VTop 2
SYMATTR InstName C4
SYMATTR Value 1n
SYMBOL cap -240 480 R0
SYMATTR InstName Cct
SYMATTR Value 2n
SYMBOL diode 336 -64 R180
WINDOW 0 24 64 Left 2
WINDOW 3 24 0 Left 2
SYMATTR InstName Dsnubber
TEXT -1024 -496 Left 2 !.tran 0.02
TEXT 576 -488 Left 2 !K1 Lprimary Lsecondary Lthird 1
